*SPEF "IEEE 1481-1998"
*DESIGN "P2Blender"
*DATE "Sat Nov 24 21:40:12 2018"
*VENDOR "Cadence Design Systems, Inc."
*PROGRAM "Encounter"
*VERSION "14.13-s036_1"
*DESIGN_FLOW "PIN_CAP NONE" "NAME_SCOPE LOCAL"
*DIVIDER /
*DELIMITER :
*BUS_DELIMITER []
*T_UNIT 1 NS
*C_UNIT 1 PF
*R_UNIT 1 OHM
*L_UNIT 1 HENRY

// MMMC spef file for corner 'rcWorst'

*NAME_MAP

*1 clk
*2 reset
*3 Mode[4]
*4 Mode[3]
*5 Mode[2]
*6 Mode[1]
*7 Mode[0]
*8 y[1]
*9 y[0]
*10 state[4]
*11 state[3]
*12 state[2]
*13 state[1]
*14 state[0]
*15 n_2
*16 n_3
*17 n_4
*18 n_5
*19 n_6
*20 n_7
*21 n_8
*22 n_9
*23 n_10
*24 n_11
*25 n_12
*26 n_13
*27 n_14
*28 n_17
*29 n_18
*30 n_19
*31 n_20
*32 n_21
*33 n_22
*34 n_23
*35 n_24
*36 n_25
*37 n_26
*38 n_27
*39 n_28
*40 n_29
*41 n_30
*42 n_32
*43 n_33
*44 n_34
*45 n_35
*46 n_36
*47 n_39
*48 n_40
*49 n_41
*50 n_42
*51 n_43
*52 n_44
*53 n_45
*54 n_46
*55 n_47
*56 n_48
*57 n_49
*58 n_50
*59 n_51
*60 n_52
*61 n_53
*62 n_54
*63 n_55
*64 n_56
*65 n_57
*66 n_58
*67 n_59
*68 n_60
*69 n_61
*70 n_62
*71 n_63
*72 n_64
*73 n_65
*74 n_66
*75 n_67
*76 n_68
*77 n_69
*78 n_70
*79 n_71
*80 n_72
*81 n_73
*82 n_74
*83 n_75
*84 n_76
*85 n_77
*86 n_78
*87 n_79
*88 n_80
*89 n_81
*90 n_82
*91 n_83
*92 n_84
*93 n_85
*94 n_86
*95 n_88
*96 n_89
*97 n_90
*98 n_91
*99 n_92
*100 n_93
*101 n_94
*102 n_95
*103 n_96
*104 n_97
*105 n_98
*106 n_99
*107 n_100
*108 n_101
*109 n_102
*110 n_103
*111 n_104
*112 n_105
*113 n_106
*114 n_107
*115 n_108
*116 n_109
*117 n_110
*118 n_111
*119 n_112
*120 n_113
*121 n_114
*122 n_115
*123 n_116
*124 n_117
*125 n_118
*126 n_119
*127 n_120
*128 n_121
*129 n_122
*130 n_123
*131 n_124
*132 n_125
*133 n_126
*134 n_127
*135 n_128
*136 n_129
*137 n_130
*138 n_131
*139 n_132
*140 n_133
*141 n_134
*142 n_135
*143 n_136
*144 n_137
*145 n_138
*146 n_139
*147 n_140
*148 n_141
*149 n_142
*150 n_143
*151 n_144
*152 n_145
*153 n_146
*154 n_147
*155 n_148
*156 n_149
*157 n_150
*158 n_151
*159 n_152
*160 n_153
*161 n_154
*162 n_155
*163 n_156
*164 n_157
*165 n_158
*166 n_159
*167 n_160
*168 n_161
*169 n_162
*170 n_163
*171 n_164
*172 n_165
*173 n_166
*174 n_167
*175 n_168
*176 n_169
*177 n_170
*178 n_171
*179 n_172
*180 n_173
*181 n_174
*182 n_175
*183 n_176
*184 n_177
*185 n_178
*186 n_179
*187 n_187
*188 n_188
*189 n_189
*190 state_reg\[2\]
*191 g4506
*192 g4508
*193 state_reg\[4\]
*194 g4509
*195 state_reg\[3\]
*196 g4512
*197 g4511
*198 g4513
*199 g4514
*200 g4515
*201 g4518
*202 state_reg\[1\]
*203 g4519
*204 g4517
*205 g4522
*206 g4520
*207 g4521
*208 g4523
*209 g4524
*210 g4525
*211 g4526
*212 g4527
*213 g4529
*214 g4528
*215 g4536
*216 g4537
*217 g4532
*218 g4535
*219 g4542
*220 g4531
*221 g4533
*222 g4534
*223 g4545
*224 g4552
*225 g4538
*226 g4543
*227 g4544
*228 g4546
*229 g4549
*230 g4551
*231 state_reg\[0\]
*232 g4540
*233 g4541
*234 g4548
*235 g4550
*236 g4553
*237 g4554
*238 g4560
*239 g4566
*240 g4557
*241 g4561
*242 g4562
*243 g4539
*244 g4567
*245 g4547
*246 g4555
*247 g4556
*248 g4563
*249 g4558
*250 g4559
*251 g4564
*252 g4569
*253 g4573
*254 g4565
*255 g4572
*256 g4574
*257 g4575
*258 g4576
*259 g4568
*260 g4570
*261 g4571
*262 g4579
*263 g4581
*264 g4583
*265 g4584
*266 g4586
*267 g4590
*268 g4577
*269 g4578
*270 g4585
*271 g4591
*272 g4592
*273 g4612
*274 g4614
*275 g4587
*276 g4588
*277 g4593
*278 g4594
*279 g4595
*280 g4596
*281 g4598
*282 g4609
*283 g4610
*284 g4613
*285 g4615
*286 g4597
*287 g4599
*288 g4600
*289 g4601
*290 g4604
*291 g4605
*292 g4607
*293 g4608
*294 g4617
*295 g4616
*296 g4625
*297 g4630
*298 g4634
*299 g4636
*300 g4638
*301 g4589
*302 g4582
*303 g4602
*304 g4603
*305 g4606
*306 g4611
*307 g4640
*308 g4620
*309 g4622
*310 g4623
*311 g4629
*312 g4631
*313 g4632
*314 g4633
*315 g4637
*316 g4639
*317 g4641
*318 g4642
*319 g4635
*320 g4643
*321 g4618
*322 g4621
*323 g4644
*324 g4628
*325 g4619
*326 g4658
*327 g4624
*328 g4662
*329 g4660
*330 g4627
*331 g4659
*332 g4645
*333 g4647
*334 g4649
*335 g4653
*336 g4666
*337 g4648
*338 g4664
*339 g4656
*340 g4661
*341 g4663
*342 g4665
*343 g4669
*344 g4650
*345 g4654
*346 g4668
*347 g4667
*348 g4646
*349 g4651
*350 g4657
*351 g4655
*352 g4652
*353 g4681
*354 g4679
*355 g4673
*356 g4674
*357 g4672
*358 g4678
*359 g4670
*360 g4671
*361 g4677
*362 g4675
*363 g4682
*364 g4683
*365 g4687
*366 g4688
*367 g4689
*368 g4684
*369 g2
*370 g4695
*371 g4696


*PORTS

*1 I *C 0 0
*2 I *C 0 0
*3 I *C 0 2
*4 I *C 0 1
*5 I *C 0 1
*6 I *C 0 0
*7 I *C 0 0
*8 O *C 0 1
*9 O *C 0 0


*D_NET *1 0.0025887

*CONN
*I *231:CK I *C 4 4 *L 0.00021 *D DFFHQX1
*I *202:CK I *C 7 4 *L 0.00021 *D DFFHQX1
*P *1 I *C 0 0 *L 0
*I *195:CK I *C 25 4 *L 0.00021 *D DFFHQX1
*I *190:CK I *C 28 4 *L 0.00021 *D DFFHQX1
*I *193:CK I *C 28 6 *L 0.00021 *D DFFHQX1

*CAP
1 *1:0 6.95346e-06
2 *1:1 0.000125162
3 *1:3 0.000139708
4 *1:4 0.000118209
5 *1:5 0.000139708
6 *1:7 6.95346e-06
7 *1:9 6.95346e-06
8 *1:10 8.05852e-05
9 *1:12 8.56889e-05
10 *1:13 5.02717e-06
11 *1:14 0.00043971
12 *1:15 5.02717e-06
13 *1:16 0.000434607
14 *1:17 9.44952e-05
15 *1:18 0.000113388
16 *1 9.44952e-05
17 *1:20 0.000113388
18 *1:21 8.3489e-05
19 *1:22 0.000204928
20 *1:23 0.000121439
21 *1:25 7.00207e-05
22 *1:27 7.73913e-05
23 *1:29 1.43727e-05
24 *1:30 7.00207e-06

*RES
1 *1:30 *193:CK 6.6
2 *1:29 *1:30 0.14345
3 *1:27 *1:29 0.151
4 *1:25 *190:CK 6.6
5 *1:25 *1:27 1.4345
6 *1:24 *195:CK 6.6
7 *1:23 *1:25 6.6
8 *1:22 *1:24 6.6
9 *1:22 *1:23 2.416
10 *1:21 *1:22 1.661
11 *1:20 *1:21 6.6
12 *1:18 *1:20 2.72555
13 *1:17 *1 2.69913
14 *1:16 *1:18 6.6
15 *1:15 *1:17 6.6
16 *1:14 *1:16 12.231
17 *1:13 *1:15 0.14345
18 *1:12 *1:14 0.14345
19 *1:10 *1:13 6.6
20 *1:10 *1:12 2.265
21 *1:9 *202:CK 6.6
22 *1:8 *1:10 6.6
23 *1:7 *1:9 0.14345
24 *1:6 *1:8 6.6
25 *1:5 *1:7 6.6
26 *1:4 *1:6 6.6
27 *1:3 *1:5 2.718
28 *1:1 *1:4 2.43865
29 *1:1 *1:3 6.6
30 *1:0 *231:CK 6.6
31 *1:0 *1:1 0.14345
*END

*D_NET *2 0.0014939

*CONN
*I *304:A I *C 4 6 *L 0.000212 *D NOR2XL
*I *357:A I *C 6 5 *L 0.000392 *D NOR2X1
*P *2 I *C 0 0 *L 0
*I *370:B I *C 16 5 *L 0.000392 *D NOR2BX1
*I *294:A I *C 17 6 *L 0.000392 *D NOR3X1

*CAP
1 *2:0 6.95346e-06
2 *2:1 0.000194697
3 *2:3 5.43309e-05
4 *2:4 0.000187743
5 *2:5 0.000124185
6 *2:6 0.000116423
7 *2:7 6.98541e-05
8 *2:8 8.60033e-06
9 *2:9 0.000116423
10 *2:10 5.9829e-06
11 *2:11 8.60033e-06
12 *2:13 5.9829e-06
13 *2:15 3.15625e-05
14 *2:16 0.000209522
15 *2 3.15625e-05
16 *2:18 0.000209522
17 *2:20 2.32847e-05
18 *2:21 5.43309e-05
19 *2:22 3.10462e-05
20 *2:24 1.64687e-06
21 *2:26 1.64687e-06

*RES
1 *2:26 *294:A 6.6
2 *2:24 *2:26 0.033975
3 *2:23 *370:B 6.6
4 *2:22 *2:24 6.6
5 *2:21 *2:23 6.6
6 *2:21 *2:22 0.604
7 *2:20 *2:21 0.453
8 *2:19 *2:20 6.6
9 *2:18 *2:19 6.6
10 *2:16 *2:18 5.889
11 *2:15 *2 0.887125
12 *2:13 *2:16 6.6
13 *2:12 *2:15 6.6
14 *2:11 *357:A 6.6
15 *2:10 *2:13 0.14345
16 *2:9 *2:12 6.6
17 *2:8 *2:11 0.177425
18 *2:7 *2:10 6.6
19 *2:6 *2:9 2.265
20 *2:5 *2:8 6.6
21 *2:5 *2:7 1.359
22 *2:4 *2:6 6.6
23 *2:3 *2:5 1.057
24 *2:1 *2:4 3.87315
25 *2:1 *2:3 6.6
26 *2:0 *304:A 6.6
27 *2:0 *2:1 0.14345
*END

*D_NET *3 0.00210759

*CONN
*I *271:A0 I *C 5 19 *L 0.00079 *D OAI31X2
*I *358:B I *C 3 19 *L 0.000212 *D NOR2XL
*I *348:B I *C 5 14 *L 0.000792 *D NOR4X2
*I *363:A I *C 4 9 *L 0.000212 *D INVXL
*I *350:A I *C 5 11 *L 0.000392 *D NOR2X1
*P *3 I *C 0 2 *L 0

*CAP
1 *3:0 5.78082e-05
2 *3:1 5.78082e-05
3 *3:2 0.000165566
4 *3:4 5.62966e-06
5 *3:5 0.000159937
6 *3:8 1.54229e-05
7 *3:9 3.08459e-05
8 *3:10 2.08604e-05
9 *3:11 2.27488e-05
10 *3:12 2.81798e-05
11 *348:B 7.3259e-06
12 *3:14 0.000111621
13 *3:15 0.000111621
14 *3:16 6.29471e-05
15 *3:17 7.6488e-05
16 *3:18 3.88078e-05
17 *3:19 0.000132116
18 *3:20 3.88078e-05
19 *3:22 0.000111255
20 *3:23 5.1602e-05
21 *3:24 7.76156e-06
22 *3:25 5.1602e-05
23 *3:26 7.76156e-06
24 *3:28 1.19658e-05
25 *3:29 2.45614e-05
26 *3:30 0.000114305
27 *3:31 0.000114305
28 *3:32 2.45614e-05
29 *3:33 1.19658e-05
30 *3:37 4.92713e-06
31 *3:38 4.92713e-06
32 *3:39 2.24528e-05
33 *3:40 3.31179e-05
34 *3:41 0.000145382
35 *3:42 0.000145382
36 *3:43 4.2941e-05
37 *3 3.22759e-05

*RES
1 *3:43 *3 0.153812
2 *3:42 *3:43 0.050825
3 *3:41 *3:42 0.642
4 *3:40 *3:41 0.050825
5 *3:39 *3:40 0.107
6 *3:38 *3:39 0.28
7 *3:37 *3:38 0.050825
8 *3:36 *3:37 6.6
9 *3:35 *3:36 6.6
10 *3:34 *3:35 6.6
11 *3:33 *3:34 6.6
12 *3:32 *3:33 0.2869
13 *3:31 *3:32 0.302
14 *3:30 *3:31 2.43865
15 *3:29 *3:30 0.302
16 *3:28 *3:29 0.2869
17 *3:26 *3:28 6.6
18 *3:25 *350:A 6.6
19 *3:24 *3:26 0.151
20 *3:23 *3:25 1.06455
21 *3:22 *3:24 6.6
22 *3:20 *3:23 6.6
23 *3:19 *3:22 2.2952
24 *3:19 *363:A 6.6
25 *3:18 *3:20 0.755
26 *3:17 *3:19 0.43035
27 *3:17 *3:18 6.6
28 *3:16 *3:17 1.1476
29 *3:15 *3:16 0.151
30 *3:14 *3:15 2.15175
31 *3:12 *3:14 0.151
32 *3:11 *348:B 0.233067
33 *3:10 *3:12 0.43035
34 *3:9 *3:11 0.490667
35 *3:9 *3:10 6.6
36 *3:8 *3:9 0.490667
37 *3:5 *3:8 6.6
38 *3:4 *358:B 6.6
39 *3:3 *271:A0 6.6
40 *3:2 *3:5 3.58625
41 *3:2 *3:4 0.14345
42 *3:1 *3:3 6.6
43 *3:0 *3:2 6.6
44 *3:0 *3:1 1.359
*END

*D_NET *4 0.00149337

*CONN
*I *348:A I *C 5 14 *L 0.000791 *D NOR4X2
*I *355:A I *C 4 16 *L 0.000211 *D NAND2XL
*I *354:A I *C 4 11 *L 0.000211 *D OR2X1
*I *361:B I *C 3 9 *L 0.000212 *D NAND2XL
*P *4 I *C 0 1 *L 0

*CAP
1 *4:1 8.34415e-05
2 *4:2 1.42729e-05
3 *4:3 8.38075e-05
4 *4:4 5.59936e-05
5 *4:5 6.29471e-05
6 *4:6 4.86742e-05
7 *4:7 5.56277e-05
8 *354:A 7.3259e-06
9 *4:10 3.81718e-05
10 *4:11 3.08459e-05
11 *4:12 4.86742e-05
12 *4:13 0.000333766
13 *4:15 0.000285092
14 *4:18 5.37235e-06
15 *4:19 5.37235e-06
16 *4:23 0.000166993
17 *4 0.000166993

*RES
1 *4:23 *4 0.795812
2 *4:22 *4:23 0.28
3 *4:21 *4:22 6.6
4 *4:20 *4:21 6.6
5 *4:19 *4:20 6.6
6 *4:18 *4:19 0.151
7 *4:17 *4:18 6.6
8 *4:16 *4:17 6.6
9 *4:15 *4:16 6.6
10 *4:13 *4:15 5.88145
11 *4:13 *361:B 6.6
12 *4:12 *4:13 1.00415
13 *4:11 *4:12 6.6
14 *4:10 *4:11 0.981333
15 *354:A *4:10 0.233067
16 *4:7 *354:A 6.6
17 *4:6 *355:A 6.6
18 *4:5 *4:7 1.1476
19 *4:4 *4:6 1.00415
20 *4:3 *4:5 0.151
21 *4:2 *4:4 0.151
22 *4:1 *4:3 1.57795
23 *4:1 *4:2 0.14345
24 *348:A *4:1 6.6
*END

*D_NET *5 0.0012308

*CONN
*I *364:A I *C 4 12 *L 0.000212 *D INVXL
*I *323:A I *C 6 12 *L 0.000793 *D NOR3X2
*I *361:A I *C 3 9 *L 0.000211 *D NAND2XL
*P *5 I *C 0 1 *L 0

*CAP
1 *5:1 3.10462e-05
2 *364:A 3.85574e-05
3 *5:3 3.10462e-05
4 *5:4 3.85574e-05
5 *5:6 0.000125162
6 *5:8 0.000139069
7 *5:10 2.12263e-05
8 *5:11 0.000271551
9 *5:12 0.000271551
10 *5:13 2.12263e-05
11 *5:14 1.39069e-05
12 *5:15 0.000108662
13 *5:16 0.000108662
14 *5:20 5.28644e-06
15 *5:21 5.28644e-06

*RES
1 *5:22 *5 0.28
2 *5:21 *5:22 6.6
3 *5:20 *5:21 0.151
4 *5:19 *5:20 6.6
5 *5:18 *5:19 6.6
6 *5:17 *5:18 6.6
7 *5:16 *5:17 6.6
8 *5:15 *5:16 2.114
9 *5:14 *5:15 6.6
10 *5:13 *5:14 0.2869
11 *5:12 *5:13 0.151
12 *5:11 *5:12 5.4511
13 *5:10 *5:11 0.151
14 *5:8 *5:10 0.2869
15 *5:8 *361:A 6.6
16 *5:6 *5:8 2.5821
17 *5:5 *323:A 6.6
18 *5:4 *5:6 6.6
19 *5:3 *5:5 6.6
20 *364:A *5:4 1.22667
21 *5:1 *5:3 0.604
22 *5:0 *364:A 6.6
23 *5:0 *5:1 6.6
*END

*D_NET *6 0.00235392

*CONN
*I *258:A0 I *C 7 16 *L 0.000211 *D OAI21XL
*I *367:A I *C 6 14 *L 0.000212 *D INVXL
*I *319:A I *C 6 18 *L 0.000212 *D NOR2XL
*I *276:A0 I *C 6 11 *L 0.000391 *D AOI31X1
*I *295:A0 I *C 8 19 *L 0.000789 *D OAI21X2
*I *271:A1 I *C 5 19 *L 0.000791 *D OAI31X2
*I *303:A I *C 5 6 *L 0.000212 *D NOR2XL
*I *330:A I *C 5 9 *L 0.00039 *D NAND2X1
*P *6 I *C 0 0 *L 0

*CAP
1 *6:1 4.86742e-05
2 *6:2 1.39069e-05
3 *6:3 3.47673e-05
4 *6:4 1.55231e-05
5 *6:5 3.10462e-05
6 *6:6 1.55231e-05
7 *6:7 3.10462e-05
8 *6:8 4.53647e-05
9 *6:9 2.08604e-05
10 *6:10 5.12907e-05
11 *6:11 3.47673e-05
12 *6:12 1.15556e-05
13 *6:14 1.75666e-05
14 *6:15 5.62966e-05
15 *6:16 5.92874e-05
16 *6:17 5.06669e-05
17 *6:19 5.92874e-05
18 *6:20 0.000109193
19 *6:21 6.62408e-05
20 *6:22 4.49619e-05
21 *6:23 6.42313e-05
22 *6:24 6.25811e-05
23 *6:25 5.62966e-06
24 *6:26 5.62966e-06
25 *6:27 3.85574e-05
26 *6:28 5.62966e-06
27 *6:29 5.62966e-06
28 *276:A0 2.31344e-05
29 *6:31 1.54229e-05
30 *6:34 5.56277e-05
31 *6:35 0.000152976
32 *6:36 2.32847e-05
33 *6:37 0.000111987
34 *6:38 2.32847e-05
35 *6:39 5.63596e-05
36 *6:40 6.95346e-06
37 *6:41 0.000222511
38 *6:42 6.95346e-06
39 *6:44 0.00018079
40 *6:46 6.20925e-05
41 *6:47 6.20925e-05
42 *6:49 5.37235e-06
43 *6:50 5.37235e-06
44 *6:54 0.000166993
45 *6 0.000166993

*RES
1 *6:54 *6 0.795812
2 *6:53 *6:54 0.28
3 *6:52 *6:53 6.6
4 *6:51 *6:52 6.6
5 *6:50 *6:51 6.6
6 *6:49 *6:50 0.151
7 *6:48 *6:49 6.6
8 *6:47 *6:48 6.6
9 *6:46 *6:47 1.208
10 *6:44 *6:46 6.6
11 *6:42 *330:A 6.6
12 *6:41 *6:44 3.7297
13 *6:41 *303:A 6.6
14 *6:40 *6:42 0.14345
15 *6:39 *6:41 0.8607
16 *6:38 *6:40 6.6
17 *6:37 *6:39 0.302
18 *6:36 *6:38 0.453
19 *6:35 *6:37 2.0083
20 *6:35 *6:36 6.6
21 *6:34 *6:35 1.1476
22 *6:31 *6:34 6.6
23 *6:29 *271:A1 6.6
24 *6:28 *295:A0 6.6
25 *6:27 *6:31 0.490667
26 *6:27 *276:A0 0.736
27 *6:26 *6:29 0.14345
28 *6:25 *6:28 0.14345
29 *6:24 *6:27 6.6
30 *6:23 *6:26 6.6
31 *6:22 *6:25 6.6
32 *6:21 *6:24 1.29105
33 *6:20 *6:23 1.51
34 *6:20 *6:22 1.057
35 *6:19 *6:21 0.0755
36 *6:17 *6:20 6.6
37 *6:16 *6:19 1.1476
38 *6:15 *319:A 6.6
39 *6:15 *6:17 1.29105
40 *6:14 *6:16 0.0755
41 *6:12 *6:15 0.14345
42 *6:11 *6:14 0.2869
43 *6:11 *367:A 6.6
44 *6:10 *6:12 0.151
45 *6:9 *6:11 0.43035
46 *6:8 *6:10 1.00415
47 *6:7 *6:9 6.6
48 *6:6 *6:8 6.6
49 *6:5 *6:7 0.604
50 *6:4 *6:6 0.302
51 *6:3 *6:5 6.6
52 *6:2 *6:4 6.6
53 *6:1 *6:3 0.71725
54 *6:1 *6:2 0.2869
55 *258:A0 *6:1 6.6
*END

*D_NET *7 0.00427722

*CONN
*I *305:A I *C 6 9 *L 0.000212 *D NOR2XL
*I *369:B I *C 12 7 *L 0.000792 *D NAND4BX2
*I *276:A1 I *C 7 11 *L 0.000391 *D AOI31X1
*I *324:A I *C 4 5 *L 0.000211 *D NAND2XL
*P *7 I *C 0 0 *L 0
*I *308:A I *C 6 16 *L 0.000212 *D NOR2XL
*I *293:A I *C 12 14 *L 0.000212 *D NOR2XL
*I *283:A I *C 14 16 *L 0.000212 *D NOR2XL
*I *215:A0 I *C 9 19 *L 0.000391 *D OAI211X1
*I *358:A I *C 3 19 *L 0.000212 *D NOR2XL
*I *306:A I *C 18 18 *L 0.000392 *D NOR2X1

*CAP
1 *7:0 1.55231e-05
2 *7:1 2.28966e-05
3 *7:2 9.73484e-05
4 *7:3 0.000100512
5 *7:4 5.56277e-05
6 *7:5 5.56277e-05
7 *7:6 0.000100512
8 *7:7 1.39069e-05
9 *7:9 8.53772e-05
10 *7:10 0.000123797
11 *7:11 2.32847e-05
12 *7:12 8.53772e-05
13 *7:13 0.000116423
14 *7:14 2.32847e-05
15 *7:15 5.9829e-05
16 *7:16 1.39069e-05
17 *7:17 5.56277e-05
18 *7:18 0.000173504
19 *7:19 1.39069e-05
20 *7:20 7.6488e-05
21 *7:22 0.000113675
22 *7:24 2.81798e-05
23 *7:26 4.17208e-05
24 *7:27 5.37235e-06
25 *7:28 7.6854e-05
26 *7:29 4.17208e-05
27 *7:30 5.37235e-06
28 *7:31 7.6854e-05
29 *7:34 2.12263e-05
30 *7:36 1.39069e-05
31 *7:37 1.47814e-05
32 *7:39 1.47814e-05
33 *7:40 1.19658e-05
34 *7:41 0.000189446
35 *7:42 4.78632e-05
36 *7 0.000189446
37 *7:44 3.58974e-05
38 *7:45 3.10462e-05
39 *7:46 2.32847e-05
40 *7:47 4.57932e-05
41 *7:48 2.32847e-05
42 *7:49 0.00017774
43 *7:50 2.08604e-05
44 *7:51 0.00017774
45 *7:52 6.95346e-05
46 *7:53 3.02701e-05
47 *7:54 5.59936e-05
48 *7:56 1.55231e-05
49 *7:57 8.67965e-05
50 *7:58 1.39069e-05
51 *7:59 7.94771e-05
52 *7:60 2.08604e-05
53 *7:61 3.21157e-05
54 *7:62 6.95346e-06
55 *7:64 2.23204e-05
56 *7:65 1.58973e-05
57 *7:66 7.76156e-05
58 *7:67 7.37055e-05
59 *7:68 6.08592e-05
60 *7:69 7.76156e-05
61 *7:70 7.37055e-05
62 *7:71 6.08592e-05
63 *7:72 2.78138e-05
64 *7:73 1.58973e-05
65 *7:74 1.58973e-05
66 *7:75 3.51333e-05
67 *7:76 1.28463e-05
68 *7:77 1.28463e-05
69 *7:78 2.12263e-05
70 *7:79 5.62966e-06
71 *7:80 1.6889e-05
72 *7:81 6.25811e-05
73 *7:82 5.62966e-06
74 *7:83 1.6889e-05
75 *7:84 4.86742e-05
76 *7:88 1.55231e-05
77 *7:89 1.92099e-05
78 *7:90 0.000127357
79 *7:91 0.000127275
80 *7:92 1.8785e-05
81 *7:93 1.51798e-05
82 *7:94 2.01762e-05
83 *7:95 2.01762e-05

*RES
1 *7:95 *306:A 6.6
2 *7:94 *7:95 0.49075
3 *7:93 *7:94 6.6
4 *7:92 *7:93 0.302
5 *7:91 *7:92 0.071725
6 *7:90 *7:91 2.416
7 *7:89 *7:90 0.071725
8 *7:88 *7:89 0.302
9 *7:84 *7:88 6.6
10 *7:83 *358:A 6.6
11 *7:82 *215:A0 6.6
12 *7:81 *283:A 6.6
13 *7:81 *7:84 1.00415
14 *7:80 *7:83 0.43035
15 *7:79 *7:82 0.14345
16 *7:78 *7:81 0.2869
17 *7:77 *7:80 6.6
18 *7:76 *7:79 6.6
19 *7:75 *7:78 0.151
20 *7:74 *7:77 0.302
21 *7:73 *7:76 0.302
22 *7:72 *7:75 0.5738
23 *7:71 *7:74 0.071725
24 *7:70 *7:73 0.071725
25 *7:69 *7:72 6.6
26 *7:68 *7:71 1.359
27 *7:67 *7:70 1.661
28 *7:66 *7:69 1.51
29 *7:65 *7:68 0.071725
30 *7:64 *7:67 0.071725
31 *7:62 *7:66 6.6
32 *7:61 *7:65 0.302
33 *7:61 *7:64 0.453
34 *7:60 *293:A 6.6
35 *7:60 *7:62 0.14345
36 *7:59 *7:61 6.6
37 *7:58 *7:60 0.2869
38 *7:57 *7:59 2.0083
39 *7:56 *7:58 6.6
40 *7:54 *7:57 0.151
41 *7:53 *7:56 0.302
42 *7:52 *308:A 6.6
43 *7:52 *7:54 1.00415
44 *7:51 *7:53 0.2869
45 *7:50 *7:52 0.43035
46 *7:49 *7:51 3.171
47 *7:48 *7:50 6.6
48 *7:47 *7:49 0.2869
49 *7:46 *7:48 0.453
50 *7:45 *7:47 0.604
51 *7:44 *7:46 6.6
52 *7:42 *7:45 6.6
53 *7:42 *7:44 0.8607
54 *7:41 *7 0.902812
55 *7:40 *7:42 0.2869
56 *7:39 *7:41 0.28
57 *7:38 *7:40 6.6
58 *7:37 *7:39 0.152475
59 *7:36 *7:38 6.6
60 *7:35 *7:37 6.6
61 *7:34 *7:36 0.2869
62 *7:33 *7:35 6.6
63 *7:31 *7:34 0.151
64 *7:30 *7:33 6.6
65 *7:29 *324:A 6.6
66 *7:28 *7:31 1.4345
67 *7:27 *7:30 0.151
68 *7:26 *7:29 0.8607
69 *7:24 *7:28 0.151
70 *7:22 *7:27 6.6
71 *7:21 *7:26 6.6
72 *7:20 *276:A1 6.6
73 *7:20 *7:24 0.43035
74 *7:19 *369:B 6.6
75 *7:18 *7:22 2.72555
76 *7:18 *7:21 6.6
77 *7:17 *7:20 1.1476
78 *7:16 *7:19 0.2869
79 *7:15 *7:18 1.4345
80 *7:14 *7:17 6.6
81 *7:13 *7:16 6.6
82 *7:12 *7:15 6.6
83 *7:11 *7:14 0.453
84 *7:10 *7:13 2.265
85 *7:9 *7:12 1.661
86 *7:7 *7:11 6.6
87 *7:6 *7:10 0.14345
88 *7:5 *7:9 6.6
89 *7:4 *305:A 6.6
90 *7:4 *7:7 0.2869
91 *7:3 *7:6 1.812
92 *7:2 *7:5 1.1476
93 *7:2 *7:4 0.8607
94 *7:1 *7:3 0.14345
95 *7:0 *7:2 6.6
96 *7:0 *7:1 0.302
*END

*D_NET *8 0.00156223

*CONN
*I *302:Y O *C 11 4 *L 0 *D AND2XL
*P *8 O *C 0 1 *L 0

*CAP
1 *8:1 1.39069e-05
2 *8:2 1.39069e-05
3 *8:4 0.000113675
4 *8:5 0.000113675
5 *8:9 4.92713e-06
6 *8:10 4.92713e-06
7 *8:11 0.000493962
8 *8:12 0.000504627
9 *8:13 0.000111703
10 *8:14 0.000111703
11 *8:15 4.2941e-05
12 *8 3.22759e-05

*RES
1 *8:15 *8 0.153812
2 *8:14 *8:15 0.050825
3 *8:13 *8:14 0.4815
4 *8:12 *8:13 0.050825
5 *8:11 *8:12 2.354
6 *8:10 *8:11 0.28
7 *8:9 *8:10 0.050825
8 *8:8 *8:9 6.6
9 *8:7 *8:8 6.6
10 *8:6 *8:7 6.6
11 *8:5 *8:6 6.6
12 *8:4 *8:5 2.72555
13 *8:3 *8:4 6.6
14 *8:2 *8:3 6.6
15 *8:1 *8:2 0.2869
16 *302:Y *8:1 6.6
*END

*D_NET *9 0.00178862

*CONN
*I *301:Y O *C 15 6 *L 0 *D AOI22X1
*P *9 O *C 0 0 *L 0

*CAP
1 *9:1 1.39069e-05
2 *9:2 1.39069e-05
3 *9:3 0.000162993
4 *9:4 0.000162993
5 *9:5 6.58119e-05
6 *9:6 6.58119e-05
7 *9:10 5.91256e-05
8 *9:11 5.91256e-05
9 *9:12 2.24528e-05
10 *9:13 3.31179e-05
11 *9:14 0.000347457
12 *9:15 0.000347457
13 *9:16 0.000222564
14 *9 0.000211898

*RES
1 *9:16 *9 1.00981
2 *9:15 *9:16 0.050825
3 *9:14 *9:15 1.605
4 *9:13 *9:14 0.050825
5 *9:12 *9:13 0.107
6 *9:11 *9:12 0.28
7 *9:10 *9:11 0.6099
8 *9:9 *9:10 6.6
9 *9:8 *9:9 6.6
10 *9:7 *9:8 6.6
11 *9:6 *9:7 6.6
12 *9:5 *9:6 1.57795
13 *9:4 *9:5 6.6
14 *9:3 *9:4 3.171
15 *9:2 *9:3 6.6
16 *9:1 *9:2 0.2869
17 *301:Y *9:1 6.6
*END

*D_NET *10 0.00136056

*CONN
*I *346:B0 I *C 15 4 *L 0.000211 *D AOI22XL
*I *301:A0 I *C 14 5 *L 0.000391 *D AOI22X1
*I *362:A I *C 20 4 *L 0.00039 *D NAND2X1
*I *359:A I *C 22 4 *L 0.000392 *D NOR2X1
*I *353:A I *C 23 4 *L 0.000392 *D NOR2X1
*I *371:AN I *C 25 4 *L 0.00021 *D NOR2BX1
*I *193:Q O *C 28 5 *L 0 *D DFFHQX1

*CAP
1 *10:0 4.90402e-05
2 *10:1 4.86742e-05
3 *10:2 1.42729e-05
4 *10:3 1.55231e-05
5 *10:4 6.95346e-06
6 *10:5 6.95346e-06
7 *10:6 2.28966e-05
8 *10:8 3.88078e-05
9 *10:9 9.9654e-05
10 *10:10 3.88078e-05
11 *10:11 9.94909e-05
12 *10:13 9.06995e-05
13 *10:15 0.000129029
14 *10:16 6.07193e-05
15 *10:17 7.00207e-06
16 *10:18 2.23902e-05
17 *10:19 3.50103e-06
18 *10:20 7.00207e-06
19 *10:21 2.99802e-05
20 *10:22 3.50103e-06
21 *10:24 0.000106259
22 *10:26 0.000204928
23 *10:27 1.05031e-05
24 *10:28 0.000121439
25 *10:29 1.40041e-05
26 *10:30 1.05031e-05
27 *10:31 4.20124e-05
28 *10:32 1.40041e-05
29 *10:34 4.20124e-05

*RES
1 *10:34 *193:Q 6.6
2 *10:32 *371:AN 6.6
3 *10:31 *10:34 0.8607
4 *10:30 *353:A 6.6
5 *10:29 *10:32 0.2869
6 *10:28 *10:31 6.6
7 *10:27 *10:30 0.215175
8 *10:26 *10:29 6.6
9 *10:26 *10:28 2.416
10 *10:24 *10:27 6.6
11 *10:24 *10:26 1.661
12 *10:22 *359:A 6.6
13 *10:21 *10:24 0.453
14 *10:20 *362:A 6.6
15 *10:19 *10:22 0.071725
16 *10:18 *10:21 0.14345
17 *10:17 *10:20 0.14345
18 *10:16 *10:19 6.6
19 *10:16 *10:18 0.302
20 *10:15 *10:17 6.6
21 *10:15 *10:16 0.906
22 *10:13 *10:15 1.661
23 *10:12 *301:A0 6.6
24 *10:11 *10:13 0.14345
25 *10:10 *10:12 6.6
26 *10:9 *10:11 1.812
27 *10:8 *10:10 0.755
28 *10:6 *10:9 0.14345
29 *10:5 *10:8 6.6
30 *10:4 *346:B0 6.6
31 *10:3 *10:6 0.302
32 *10:2 *10:5 0.14345
33 *10:1 *10:4 0.14345
34 *10:1 *10:3 6.6
35 *10:0 *10:2 0.151
36 *10:0 *10:1 0.8607
*END

*D_NET *11 0.00046963

*CONN
*I *333:B1 I *C 20 4 *L 0.000787 *D AOI33X2
*I *362:B I *C 21 4 *L 0.000392 *D NAND2X1
*I *359:B I *C 22 4 *L 0.000392 *D NOR2X1
*I *371:B I *C 24 4 *L 0.000392 *D NOR2BX1
*I *368:A I *C 22 4 *L 0.000395 *D INVX1
*I *195:Q O *C 25 4 *L 0 *D DFFHQX1

*CAP
1 *333:B1 1.52956e-05
2 *11:1 2.25611e-05
3 *11:2 2.25611e-05
4 *362:B 1.52956e-05
5 *11:5 6.07193e-05
6 *11:6 8.3489e-05
7 *11:7 2.99802e-05
8 *11:9 9.06995e-05
9 *11:11 9.86689e-05
10 *11:12 7.58991e-06
11 *11:13 2.27697e-05

*RES
1 *11:16 *195:Q 6.6
2 *11:15 *368:A 6.6
3 *11:14 *371:B 6.6
4 *11:13 *11:16 6.6
5 *11:12 *11:15 6.6
6 *11:11 *11:14 6.6
7 *11:11 *11:13 0.453
8 *11:9 *11:12 0.151
9 *11:9 *11:11 1.51
10 *11:8 *359:B 6.6
11 *11:7 *11:9 0.14345
12 *11:6 *11:8 6.6
13 *11:6 *11:7 0.453
14 *11:5 *11:6 1.208
15 *11:3 *11:5 6.6
16 *11:2 *362:B 0.490667
17 *11:1 *11:3 6.6
18 *11:1 *11:2 0.233067
19 *333:B1 *11:1 0.490667
*END

*D_NET *12 0.00170661

*CONN
*I *360:A I *C 13 5 *L 0.000211 *D NAND2XL
*I *369:D I *C 13 7 *L 0.000795 *D NAND4BX2
*I *321:B1 I *C 13 4 *L 0.00039 *D OAI221X1
*I *346:A1 I *C 15 4 *L 0.000212 *D AOI22XL
*I *333:B2 I *C 20 4 *L 0.000792 *D AOI33X2
*I *349:A I *C 22 6 *L 0.00039 *D NAND2X1
*I *341:A I *C 23 6 *L 0.00039 *D NAND2X1
*I *366:A I *C 24 5 *L 0.000395 *D INVX1
*I *336:A I *C 26 6 *L 0.00039 *D NAND2X1
*I *190:Q O *C 28 4 *L 0 *D DFFHQX1

*CAP
1 *12:0 1.54229e-05
2 *12:1 6.95346e-05
3 *12:2 2.31344e-05
4 *12:3 6.95346e-05
5 *360:A 7.71147e-06
6 *12:5 3.47673e-05
7 *12:7 5.56277e-05
8 *12:8 2.08604e-05
9 *12:9 6.20925e-05
10 *12:11 0.00023113
11 *12:12 0.000275297
12 *12:13 6.95346e-06
13 *12:14 0.000106259
14 *12:15 2.10062e-05
15 *12:16 6.95346e-06
16 *12:17 4.20124e-05
17 *12:18 2.10062e-05
18 *12:20 6.41242e-05
19 *12:22 2.91139e-05
20 *12:25 7.00207e-06
21 *12:26 4.55395e-05
22 *12:27 0.000113849
23 *12:28 0.000166978
24 *12:30 9.86689e-05
25 *12:31 7.00207e-06
26 *12:33 4.90145e-05
27 *12:34 7.00207e-06
28 *12:35 4.90145e-05

*RES
1 *12:35 *190:Q 6.6
2 *12:34 *336:A 6.6
3 *12:33 *12:35 1.00415
4 *12:31 *12:34 0.14345
5 *12:30 *12:33 6.6
6 *12:29 *366:A 6.6
7 *12:28 *12:31 6.6
8 *12:28 *12:30 1.963
9 *12:27 *12:29 6.6
10 *12:27 *12:28 1.359
11 *12:26 *12:27 0.906
12 *12:25 *12:26 6.6
13 *12:22 *12:25 0.14345
14 *12:22 *341:A 6.6
15 *12:20 *349:A 6.6
16 *12:20 *12:22 0.453
17 *12:18 *333:B2 6.6
18 *12:17 *12:20 0.8607
19 *12:16 *346:A1 6.6
20 *12:15 *12:18 0.43035
21 *12:14 *12:17 6.6
22 *12:13 *12:16 0.14345
23 *12:12 *12:15 6.6
24 *12:12 *12:14 2.114
25 *12:11 *12:13 6.6
26 *12:11 *12:12 3.322
27 *12:9 *12:11 1.208
28 *12:8 *321:B1 6.6
29 *12:7 *12:9 6.6
30 *12:7 *12:8 0.43035
31 *12:5 *12:7 0.71725
32 *12:3 *369:D 6.6
33 *12:2 *12:5 6.6
34 *12:2 *360:A 0.245333
35 *12:1 *12:3 1.4345
36 *12:0 *12:2 0.490667
37 *12:0 *12:1 6.6
*END

*D_NET *13 0.00132471

*CONN
*I *352:B I *C 8 5 *L 0.000796 *D NAND2X2
*I *202:Q O *C 7 4 *L 0 *D DFFHQX1
*I *360:B I *C 14 6 *L 0.000212 *D NAND2XL
*I *346:B1 I *C 15 4 *L 0.000212 *D AOI22XL
*I *365:A I *C 15 5 *L 0.000395 *D INVX1
*I *331:B I *C 17 8 *L 0.000392 *D NAND2X1
*I *343:A I *C 18 6 *L 0.00021 *D MXI2XL

*CAP
1 *13:0 6.95346e-06
2 *13:1 4.86742e-05
3 *13:3 3.88078e-05
4 *13:4 4.17208e-05
5 *13:5 4.61813e-05
6 *13:6 2.32847e-05
7 *13:7 5.39429e-05
8 *13:8 2.32847e-05
9 *13:9 5.39429e-05
10 *13:11 0.000147082
11 *13:13 0.000162993
12 *13:14 3.06582e-05
13 *13:15 1.39069e-05
14 *13:16 4.61813e-05
15 *13:17 1.39069e-05
16 *13:18 3.88078e-05
17 *13:20 6.95346e-06
18 *13:21 2.08604e-05
19 *13:22 1.55231e-05
20 *13:23 1.39069e-05
21 *13:24 5.43309e-05
22 *13:26 2.08604e-05
23 *13:27 7.72723e-05
24 *13:28 2.81798e-05
25 *13:29 3.84645e-05
26 *13:30 9.73484e-05
27 *13:31 7.31943e-06
28 *13:32 2.80083e-05
29 *13:33 9.73484e-05
30 *13:35 2.80083e-05

*RES
1 *13:35 *343:A 6.6
2 *13:33 *331:B 6.6
3 *13:32 *13:35 0.5738
4 *13:31 *365:A 6.6
5 *13:30 *13:33 2.0083
6 *13:29 *13:32 6.6
7 *13:28 *13:31 0.151
8 *13:27 *13:30 6.6
9 *13:27 *13:29 0.755
10 *13:26 *13:28 0.43035
11 *13:24 *13:27 0.755
12 *13:24 *13:26 6.6
13 *13:23 *346:B1 6.6
14 *13:22 *13:24 0.302
15 *13:21 *13:23 0.2869
16 *13:21 *13:22 6.6
17 *13:20 *13:21 0.14345
18 *13:18 *13:20 6.6
19 *13:17 *360:B 6.6
20 *13:16 *13:18 0.755
21 *13:15 *13:17 0.2869
22 *13:14 *13:16 0.14345
23 *13:13 *13:15 6.6
24 *13:13 *13:14 0.453
25 *13:11 *13:13 2.718
26 *13:10 *202:Q 6.6
27 *13:9 *13:11 0.14345
28 *13:8 *13:10 6.6
29 *13:7 *13:9 0.906
30 *13:6 *13:8 0.453
31 *13:5 *13:7 0.14345
32 *13:4 *13:6 6.6
33 *13:3 *13:5 0.755
34 *13:1 *13:4 0.8607
35 *13:1 *13:3 6.6
36 *13:0 *352:B 6.6
37 *13:0 *13:1 0.14345
*END

*D_NET *14 0.00168165

*CONN
*I *321:A0 I *C 13 4 *L 0.000392 *D OAI221X1
*I *357:B I *C 6 6 *L 0.000392 *D NOR2X1
*I *231:Q O *C 4 4 *L 0 *D DFFHQX1
*I *370:AN I *C 16 6 *L 0.00021 *D NOR2BX1
*I *343:S0 I *C 19 6 *L 0.000421 *D MXI2XL
*I *333:B0 I *C 20 4 *L 0.00079 *D AOI33X2

*CAP
1 *14:0 1.39069e-05
2 *14:1 6.95346e-05
3 *14:3 5.56277e-05
4 *14:4 0.000217324
5 *14:5 4.65694e-05
6 *14:6 0.000224697
7 *14:7 5.39429e-05
8 *14:8 4.61813e-05
9 *14:9 9.27507e-05
10 *14:10 0.000131947
11 *14:11 9.27507e-05
12 *14:12 5.56277e-05
13 *14:13 9.31387e-05
14 *14:14 2.28966e-05
15 *14:15 5.56277e-05
16 *14:17 1.55231e-05
17 *14:20 2.08604e-05
18 *14:21 1.39069e-05
19 *14:22 6.95346e-06
20 *14:23 8.41756e-05
21 *14:25 8.41756e-05
22 *14:26 1.40041e-05
23 *14:27 2.80083e-05
24 *14:28 2.87453e-05
25 *14:30 6.37557e-05
26 *14:31 4.90145e-05

*RES
1 *14:31 *333:B0 6.6
2 *14:30 *14:31 1.00415
3 *14:28 *14:30 0.302
4 *14:27 *343:S0 6.6
5 *14:27 *14:28 0.2869
6 *14:26 *14:27 0.2869
7 *14:25 *14:26 6.6
8 *14:23 *14:25 1.661
9 *14:22 *370:AN 6.6
10 *14:21 *14:23 6.6
11 *14:20 *14:22 0.14345
12 *14:20 *14:21 0.2869
13 *14:17 *14:20 6.6
14 *14:16 *231:Q 6.6
15 *14:15 *357:B 6.6
16 *14:14 *14:17 0.302
17 *14:13 *14:16 6.6
18 *14:12 *14:15 1.1476
19 *14:11 *14:14 0.14345
20 *14:10 *14:13 1.812
21 *14:10 *14:12 6.6
22 *14:9 *14:11 1.661
23 *14:8 *14:10 0.755
24 *14:7 *14:9 0.14345
25 *14:6 *14:8 0.14345
26 *14:5 *14:7 0.906
27 *14:4 *14:6 4.228
28 *14:3 *14:5 6.6
29 *14:1 *14:4 6.6
30 *14:1 *14:3 1.1476
31 *14:0 *321:A0 6.6
32 *14:0 *14:1 0.2869
*END

*D_NET *15 0.000994084

*CONN
*I *321:A1 I *C 13 4 *L 0.000391 *D OAI221X1
*I *356:A I *C 11 5 *L 0.000395 *D INVX1
*I *362:Y O *C 21 4 *L 0 *D NAND2X1

*CAP
1 *15:1 2.08604e-05
2 *15:2 6.95346e-06
3 *15:3 1.39069e-05
4 *15:4 6.98541e-05
5 *15:5 2.32847e-05
6 *15:6 6.98541e-05
7 *15:7 3.80317e-05
8 *15:8 5.56277e-05
9 *15:9 0.000154455
10 *15:10 5.56277e-05
11 *15:11 0.000154455
12 *15:13 6.8048e-05
13 *15:14 6.05115e-05
14 *15:15 7.55196e-05
15 *15:16 7.55196e-05
16 *15:17 2.23902e-05
17 *15:18 1.51798e-05
18 *15:19 7.00207e-06
19 *15:20 7.00207e-06

*RES
1 *15:20 *362:Y 6.6
2 *15:19 *15:20 0.14345
3 *15:18 *15:19 6.6
4 *15:17 *15:18 0.302
5 *15:16 *15:17 0.14345
6 *15:15 *15:16 1.359
7 *15:14 *15:15 0.14345
8 *15:13 *15:14 1.057
9 *15:11 *15:13 0.2869
10 *15:10 *356:A 6.6
11 *15:9 *15:11 2.718
12 *15:8 *15:10 1.1476
13 *15:7 *15:9 0.2869
14 *15:6 *15:8 6.6
15 *15:5 *15:7 0.453
16 *15:4 *15:6 1.359
17 *15:3 *15:5 6.6
18 *15:2 *15:4 6.6
19 *15:1 *15:3 0.2869
20 *15:1 *15:2 0.14345
21 *321:A1 *15:1 6.6
*END

*D_NET *16 0.000170754

*CONN
*I *356:Y O *C 11 6 *L 0 *D INVX1
*I *243:A1 I *C 9 6 *L 0.000391 *D OAI211X1

*CAP
1 *16:2 8.53772e-05
2 *16:3 8.53772e-05

*RES
1 *16:4 *243:A1 6.6
2 *16:3 *16:4 6.6
3 *16:2 *16:3 1.661
4 *16:1 *16:2 6.6
5 *356:Y *16:1 6.6
*END

*D_NET *17 0.000167615

*CONN
*I *363:Y O *C 4 9 *L 0 *D INVXL
*I *344:A I *C 4 9 *L 0.000212 *D NOR2XL
*I *354:B I *C 4 11 *L 0.00021 *D OR2X1

*CAP
1 *17:0 1.42729e-05
2 *17:1 1.42729e-05
3 *17:2 6.95346e-05
4 *17:3 6.95346e-06
5 *17:4 6.25811e-05

*RES
1 *17:4 *354:B 6.6
2 *17:3 *344:A 6.6
3 *17:2 *363:Y 6.6
4 *17:2 *17:4 1.29105
5 *17:1 *17:3 0.14345
6 *17:0 *17:2 0.14345
7 *17:0 *17:1 0.151
*END

*D_NET *18 0.000219917

*CONN
*I *344:B I *C 4 9 *L 0.000212 *D NOR2XL
*I *361:Y O *C 4 9 *L 0 *D NAND2XL
*I *350:B I *C 5 11 *L 0.000392 *D NOR2X1

*CAP
1 *18:1 2.78138e-05
2 *18:2 2.78138e-05
3 *18:3 3.10462e-05
4 *18:4 2.32847e-05
5 *18:5 3.10462e-05
6 *18:6 2.32847e-05
7 *18:8 2.78138e-05
8 *18:10 2.78138e-05

*RES
1 *18:10 *350:B 6.6
2 *18:8 *18:10 0.5738
3 *18:7 *361:Y 6.6
4 *18:6 *18:8 6.6
5 *18:5 *18:7 6.6
6 *18:4 *18:6 0.453
7 *18:3 *18:5 0.604
8 *18:2 *18:4 6.6
9 *18:1 *18:3 6.6
10 *18:1 *18:2 0.5738
11 *344:B *18:1 6.6
*END

*D_NET *19 0.000312417

*CONN
*I *348:C I *C 5 14 *L 0.000792 *D NOR4X2
*I *355:B I *C 4 16 *L 0.000212 *D NAND2XL
*I *364:Y O *C 4 12 *L 0 *D INVXL
*I *337:A I *C 5 16 *L 0.000211 *D OR2X1

*CAP
1 *19:1 0.000118209
2 *19:2 6.95346e-05
3 *19:3 5.56277e-05
4 *19:4 6.95346e-06
5 *19:7 3.10462e-05
6 *19:8 3.10462e-05

*RES
1 *19:9 *337:A 6.6
2 *19:8 *19:9 6.6
3 *19:7 *19:8 0.604
4 *19:4 *19:7 6.6
5 *19:3 *364:Y 6.6
6 *19:2 *355:B 6.6
7 *19:2 *19:4 0.14345
8 *19:1 *19:3 1.1476
9 *19:1 *19:2 1.29105
10 *348:C *19:1 6.6
*END

*D_NET *20 0.000205026

*CONN
*I *360:Y O *C 14 5 *L 0 *D NAND2XL
*I *301:B1 I *C 15 6 *L 0.000392 *D AOI22X1
*I *347:B I *C 14 4 *L 0.000212 *D NAND2XL

*CAP
1 *360:Y 7.71147e-06
2 *20:2 3.88078e-05
3 *20:3 7.71147e-06
4 *20:4 3.88078e-05
5 *20:5 7.31943e-06
6 *20:7 5.59936e-05
7 *20:9 4.86742e-05

*RES
1 *20:9 *347:B 6.6
2 *20:7 *20:9 1.00415
3 *20:6 *301:B1 6.6
4 *20:5 *20:7 0.151
5 *20:4 *20:6 6.6
6 *20:3 *20:5 6.6
7 *20:2 *20:4 0.755
8 *360:Y *20:3 0.245333