// Generated for: spectre
// Generated on: Nov  3 22:58:27 2018
// Design library name: ELEC402
// Design cell name: CELL_TB
// Design view name: schematic
simulator lang=spectre
global 0
